Circuit: * I:\GitHub\QuadrotorTesting\WiFiAntTesting\LTspice\WiFi.asc

.OP point found by inspection.

Date: Tue Jul 09 17:59:55 2019
Total elapsed time: 0.030 seconds.

tnom = 27
temp = 27
method = modified trap
totiter = 474
traniter = 474
tranpoints = 238
accept = 165
rejected = 73
matrix size = 5
fillins = 0
solver = Normal
Matrix Compiler1: 150 bytes object code size  0.0/0.0/[0.0]
Matrix Compiler2: 321 bytes object code size  0.0/0.0/[0.0]

