Circuit: * I:\GitHub\QuadrotorTesting\WiFiAntTesting\LTspice\WiFi.asc

.OP point found by inspection.

Date: Tue Jul 09 18:26:19 2019
Total elapsed time: 0.055 seconds.

tnom = 27
temp = 27
method = modified trap
totiter = 450
traniter = 450
tranpoints = 226
accept = 162
rejected = 64
matrix size = 5
fillins = 0
solver = Normal
Matrix Compiler1: 150 bytes object code size  0.1/0.0/[0.0]
Matrix Compiler2: 321 bytes object code size  0.0/0.1/[0.0]

