Circuit: * I:\GitHub\QuadrotorTesting\WiFiAntTesting\LTspice\WiFi.asc

.OP point found by inspection.

Date: Tue Jul 09 18:04:13 2019
Total elapsed time: 0.060 seconds.

tnom = 27
temp = 27
method = modified trap
totiter = 474
traniter = 474
tranpoints = 238
accept = 165
rejected = 73
matrix size = 5
fillins = 0
solver = Normal
Matrix Compiler1: 150 bytes object code size  0.1/0.1/[0.0]
Matrix Compiler2:      27 opcodes  0.0/[0.0]/0.0

